Version 4.1
SHEET 1 2408 848
WIRE -480 32 -480 16
WIRE -416 32 -416 16
WIRE -416 32 -480 32
WIRE 672 32 656 32
WIRE 32 48 32 32
WIRE -416 64 -416 32
WIRE 528 64 400 64
WIRE 400 80 400 64
WIRE 672 80 672 32
WIRE 688 80 672 80
WIRE 1600 80 1584 80
WIRE 1760 80 1680 80
WIRE 528 112 528 64
WIRE 560 112 528 112
WIRE 688 112 560 112
WIRE 1152 112 1088 112
WIRE 560 128 560 112
WIRE 32 160 32 128
WIRE 32 160 -208 160
WIRE 896 160 864 160
WIRE 1152 160 1152 112
WIRE 1248 160 1216 160
WIRE 1360 160 1248 160
WIRE -416 176 -416 144
WIRE -416 176 -480 176
WIRE -416 192 -416 176
WIRE 32 192 32 160
WIRE 400 192 400 160
WIRE 400 192 368 192
WIRE 1712 192 1712 176
WIRE -480 208 -480 176
WIRE 400 208 400 192
WIRE 560 208 528 208
WIRE 688 208 560 208
WIRE 1584 208 1584 80
WIRE 1680 208 1584 208
WIRE -208 224 -208 160
WIRE 1760 224 1760 80
WIRE 1760 224 1744 224
WIRE 1840 224 1760 224
WIRE 688 240 672 240
WIRE 1680 240 1680 224
WIRE 1680 240 1648 240
WIRE 800 256 800 224
WIRE 1504 272 1504 208
WIRE 400 304 400 288
WIRE 528 304 528 208
WIRE 528 304 400 304
WIRE 672 304 672 240
WIRE 672 304 656 304
WIRE -208 368 -208 304
WIRE 1648 368 1648 240
WIRE 1648 368 1600 368
WIRE 288 480 272 480
WIRE 400 480 368 480
WIRE 400 640 400 480
WIRE 400 640 368 640
WIRE 432 640 400 640
WIRE 160 656 144 656
WIRE 272 656 272 480
WIRE 272 656 240 656
WIRE 304 656 272 656
WIRE 384 672 368 672
WIRE 384 720 384 672
FLAG 32 32 nVright
FLAG 656 32 nVright
FLAG 656 304 nVleft
FLAG 32 272 nVleft
FLAG -416 -64 nVDD
FLAG 720 64 nVDD
FLAG 896 160 nStageOneOut
FLAG 1088 112 nStageOneOut
FLAG 1360 160 nFilterOut
FLAG -480 208 0
FLAG 800 256 0
FLAG 720 256 nVSS
FLAG -416 272 nVSS
FLAG 1712 176 nVDD
FLAG 1600 368 nFilterOut
FLAG 1712 256 nVSS
FLAG 1840 224 nStageTwoOut
FLAG 1248 240 nVref
FLAG 1504 272 nVref
FLAG 384 720 0
FLAG 336 688 nVSS
FLAG 336 624 nVDD
FLAG -208 368 nRLD_out
FLAG 144 656 nRLD_out
FLAG -480 16 nVref
FLAG 368 192 nVCM
FLAG 432 640 nVCM
SYMBOL voltage 32 32 R0
WINDOW 123 0 0 Left 0
WINDOW 39 0 0 Left 0
SYMATTR InstName Vright
SYMATTR Value SINE(2m 0.5m 1)
SYMBOL voltage 32 176 R0
WINDOW 123 0 0 Left 0
WINDOW 39 0 0 Left 0
SYMATTR InstName Vleft
SYMATTR Value SINE(2m 0.5m 1)
SYMBOL voltage -416 -80 R0
SYMATTR InstName V1
SYMATTR Value 1.65V
SYMBOL voltage -416 176 R0
SYMATTR InstName V2
SYMATTR Value 3.3
SYMBOL OpAmps\\AD8422 720 160 R0
SYMATTR InstName U2
SYMBOL res 544 112 R0
SYMATTR InstName R_gain
SYMATTR Value 4.42k
SYMBOL res 1232 144 R0
SYMATTR InstName R_filter
SYMATTR Value 510k
SYMBOL cap 1152 144 M90
WINDOW 0 0 32 VBottom 2
WINDOW 3 32 32 VTop 2
SYMATTR InstName C1
SYMATTR Value 10µF
SYMBOL OpAmps\\ADA4522 1712 160 R0
SYMATTR InstName U1
SYMBOL res 1696 64 R90
WINDOW 0 0 56 VBottom 2
WINDOW 3 32 56 VTop 2
SYMATTR InstName R1
SYMATTR Value 100k
SYMBOL res 1600 192 R90
WINDOW 0 0 56 VBottom 2
WINDOW 3 32 56 VTop 2
SYMATTR InstName R2
SYMATTR Value 1k
SYMBOL voltage -416 48 R0
SYMATTR InstName V3
SYMATTR Value 1.65
SYMBOL res 384 64 R0
SYMATTR InstName R3
SYMATTR Value 2.21k
SYMBOL res 384 192 R0
SYMATTR InstName R4
SYMATTR Value 2.21k
SYMBOL OpAmps\\UniversalOpAmp 336 656 M0
SYMATTR InstName U3
SYMBOL res 272 496 R270
WINDOW 0 32 56 VTop 2
WINDOW 3 0 56 VBottom 2
SYMATTR InstName R5
SYMATTR Value 1Meg
SYMBOL voltage -208 208 R0
WINDOW 3 15 102 Left 2
WINDOW 123 0 0 Left 0
WINDOW 39 0 0 Left 0
SYMATTR InstName Vbody
SYMATTR Value SINE(0 0.3 0.1)
SYMBOL res 256 640 R90
WINDOW 0 0 56 VBottom 2
WINDOW 3 32 56 VTop 2
SYMATTR InstName R6
SYMATTR Value 1k
TEXT 512 352 Left 2 ;Gain set to 10V/V
TEXT -496 560 Left 2 !.tran 0 20 0 10m
TEXT 1496 440 Left 2 ;op amp gain stage
TEXT 1496 472 Left 2 ;Gain set to 100V/V
TEXT 504 392 Left 2 ;instrumentation amplifier
TEXT -504 376 Left 2 ;Supply rails
TEXT -136 456 Left 2 ;Voltage input from body
TEXT 1080 352 Left 2 ;High Pass Filter ~0.03Hz
TEXT 216 832 Left 2 ;Right Leg Drive (RLD) Circuit
