Version 4.1
SHEET 1 2408 744
WIRE 112 48 112 32
WIRE 1440 80 1424 80
WIRE 1600 80 1520 80
WIRE 512 112 384 112
WIRE 976 112 912 112
WIRE 384 128 384 112
WIRE -160 144 -160 112
WIRE -160 144 -224 144
WIRE -160 160 -160 144
WIRE 112 160 112 128
WIRE 112 160 16 160
WIRE 720 160 688 160
WIRE 976 160 976 112
WIRE 1072 160 1040 160
WIRE 1184 160 1072 160
WIRE -224 176 -224 144
WIRE 16 192 16 160
WIRE 112 192 112 160
WIRE 1552 192 1552 176
WIRE 512 208 384 208
WIRE 1424 208 1424 80
WIRE 1520 208 1424 208
WIRE 1600 224 1600 80
WIRE 1600 224 1584 224
WIRE 1680 224 1600 224
WIRE 1520 240 1520 224
WIRE 1520 240 1488 240
WIRE 624 256 624 224
WIRE 1344 272 1344 208
WIRE 1488 336 1488 240
FLAG 112 32 nVright
FLAG 512 80 nVright
FLAG 512 240 nVleft
FLAG 112 272 nVleft
FLAG -160 32 nVDD
FLAG 544 64 nVDD
FLAG 16 192 0
FLAG 720 160 nStageOneOut
FLAG 912 112 nStageOneOut
FLAG 1184 160 nFilterOut
FLAG -224 176 0
FLAG 624 256 0
FLAG 544 256 nVSS
FLAG -160 240 nVSS
FLAG 48 592 0
FLAG 48 512 nVref
FLAG 1552 176 nVDD
FLAG 1552 256 nVSS
FLAG 1072 240 0
FLAG 1344 272 0
FLAG 1680 224 nVout
FLAG 1488 336 nFilterOut
SYMBOL voltage 112 32 R0
WINDOW 123 0 0 Left 0
WINDOW 39 0 0 Left 0
SYMATTR InstName Vright
SYMATTR Value SINE(0 0.5m 1)
SYMBOL voltage 112 176 R0
WINDOW 123 0 0 Left 0
WINDOW 39 0 0 Left 0
SYMATTR InstName Vleft
SYMATTR Value SINE(0 0.5m 1)
SYMBOL voltage -160 16 R0
SYMATTR InstName V1
SYMATTR Value 3.3
SYMBOL voltage -160 144 R0
SYMATTR InstName V2
SYMATTR Value 3.3
SYMBOL OpAmps\\AD8422 544 160 R0
SYMATTR InstName U2
SYMBOL res 368 112 R0
SYMATTR InstName R_gain
SYMATTR Value 2.21k
SYMBOL res 1056 144 R0
SYMATTR InstName R_load
SYMATTR Value 510k
SYMBOL cap 976 144 M90
WINDOW 0 0 32 VBottom 2
WINDOW 3 32 32 VTop 2
SYMATTR InstName C1
SYMATTR Value 10µF
SYMBOL OpAmps\\ADA4522 1552 160 R0
SYMATTR InstName U1
SYMBOL res 1536 64 R90
WINDOW 0 0 56 VBottom 2
WINDOW 3 32 56 VTop 2
SYMATTR InstName R1
SYMATTR Value 100k
SYMBOL res 1440 192 R90
WINDOW 0 0 56 VBottom 2
WINDOW 3 32 56 VTop 2
SYMATTR InstName R2
SYMATTR Value 1k
SYMBOL voltage 48 496 R0
SYMATTR InstName Vref
SYMATTR Value 1.65V
TEXT 456 352 Left 2 ;Gain set to 10V/V
TEXT -248 408 Left 2 !.tran 0 10 0 10m
TEXT 1344 480 Left 2 ;Gain set to 100V/V
