Version 4.1
SHEET 1 2408 744
WIRE 496 32 480 32
WIRE 32 48 32 32
WIRE 496 80 496 32
WIRE 512 80 496 80
WIRE 1424 80 1408 80
WIRE 1584 80 1504 80
WIRE 384 112 352 112
WIRE 512 112 384 112
WIRE 976 112 912 112
WIRE 384 128 384 112
WIRE -160 144 -160 112
WIRE -160 144 -224 144
WIRE -160 160 -160 144
WIRE 32 160 32 128
WIRE 32 160 -64 160
WIRE 720 160 688 160
WIRE 976 160 976 112
WIRE 1072 160 1040 160
WIRE 1184 160 1072 160
WIRE -224 176 -224 144
WIRE -64 192 -64 160
WIRE 32 192 32 160
WIRE 1536 192 1536 176
WIRE 384 208 352 208
WIRE 512 208 384 208
WIRE 1408 208 1408 80
WIRE 1504 208 1408 208
WIRE 1584 224 1584 80
WIRE 1584 224 1568 224
WIRE 1664 224 1584 224
WIRE 512 240 496 240
WIRE 1504 240 1504 224
WIRE 1504 240 1472 240
WIRE 624 256 624 224
WIRE 1328 272 1328 208
WIRE 496 304 496 240
WIRE 496 304 480 304
WIRE 1472 368 1472 240
WIRE 1472 368 1424 368
WIRE 1904 400 1840 400
WIRE 1984 400 1904 400
FLAG 32 32 nVright
FLAG 480 32 nVright
FLAG 480 304 nVleft
FLAG 32 272 nVleft
FLAG -160 32 nVDD
FLAG 544 64 nVDD
FLAG -64 192 0
FLAG 720 160 nStageOneOut
FLAG 912 112 nStageOneOut
FLAG 1184 160 nFilterOut
FLAG -224 176 0
FLAG 624 256 0
FLAG 544 256 nVSS
FLAG -160 240 nVSS
FLAG 1536 176 nVDD
FLAG 1072 240 0
FLAG 1328 272 0
FLAG 1904 480 nVDD
FLAG 1424 368 nFilterOut
FLAG 1536 256 nVSS
FLAG 1664 224 nStageTwoOut
FLAG 1760 400 nStageTwoOut
FLAG 1984 400 nVout
FLAG 352 208 nVCM_LOW
FLAG 352 112 nVCM_HI
SYMBOL voltage 32 32 R0
WINDOW 123 0 0 Left 0
WINDOW 39 0 0 Left 0
SYMATTR InstName Vright
SYMATTR Value SINE(0 0.5m 1)
SYMBOL voltage 32 176 R0
WINDOW 123 0 0 Left 0
WINDOW 39 0 0 Left 0
SYMATTR InstName Vleft
SYMATTR Value SINE(0 0.5m 1)
SYMBOL voltage -160 16 R0
SYMATTR InstName V1
SYMATTR Value 3.3
SYMBOL voltage -160 144 R0
SYMATTR InstName V2
SYMATTR Value 3.3
SYMBOL OpAmps\\AD8422 544 160 R0
SYMATTR InstName U2
SYMBOL res 368 112 R0
SYMATTR InstName R_gain
SYMATTR Value 1.05k
SYMBOL res 1056 144 R0
SYMATTR InstName R_load
SYMATTR Value 510k
SYMBOL cap 976 144 M90
WINDOW 0 0 32 VBottom 2
WINDOW 3 32 32 VTop 2
SYMATTR InstName C1
SYMATTR Value 10µF
SYMBOL OpAmps\\ADA4522 1536 160 R0
SYMATTR InstName U1
SYMBOL res 1520 64 R90
WINDOW 0 0 56 VBottom 2
WINDOW 3 32 56 VTop 2
SYMATTR InstName R1
SYMATTR Value 100k
SYMBOL res 1424 192 R90
WINDOW 0 0 56 VBottom 2
WINDOW 3 32 56 VTop 2
SYMATTR InstName R2
SYMATTR Value 1k
SYMBOL res 1856 384 R90
WINDOW 0 0 56 VBottom 2
WINDOW 3 32 56 VTop 2
SYMATTR InstName R3
SYMATTR Value 100k
SYMBOL res 1888 384 R0
SYMATTR InstName R4
SYMATTR Value 100k
TEXT 456 352 Left 2 ;Gain set to 20V/V
TEXT -248 408 Left 2 !.tran 0 10 0 10m
TEXT 1744 568 Left 2 ;DC offset circuit
TEXT 1320 440 Left 2 ;op amp gain stage
TEXT 1320 472 Left 2 ;Gain set to 100V/V
TEXT 456 392 Left 2 ;instrumentation amplifier
