Version 4.1
SHEET 1 2408 848
WIRE -480 32 -480 16
WIRE -416 32 -416 16
WIRE -416 32 -480 32
WIRE 496 32 480 32
WIRE 32 48 32 32
WIRE -416 64 -416 32
WIRE 496 80 496 32
WIRE 512 80 496 80
WIRE 1424 80 1408 80
WIRE 1584 80 1504 80
WIRE 384 112 352 112
WIRE 512 112 384 112
WIRE 976 112 912 112
WIRE 384 128 384 112
WIRE 32 160 32 128
WIRE 32 160 -208 160
WIRE 720 160 688 160
WIRE 976 160 976 112
WIRE 1072 160 1040 160
WIRE 1184 160 1072 160
WIRE -416 176 -416 144
WIRE -416 176 -480 176
WIRE -416 192 -416 176
WIRE 32 192 32 160
WIRE 1536 192 1536 176
WIRE -480 208 -480 176
WIRE 384 208 352 208
WIRE 512 208 384 208
WIRE 1408 208 1408 80
WIRE 1504 208 1408 208
WIRE -208 224 -208 160
WIRE 1584 224 1584 80
WIRE 1584 224 1568 224
WIRE 1664 224 1584 224
WIRE 512 240 496 240
WIRE 1504 240 1504 224
WIRE 1504 240 1472 240
WIRE 624 256 624 224
WIRE 1328 272 1328 208
WIRE 496 304 496 240
WIRE 496 304 480 304
WIRE -208 368 -208 304
WIRE 1472 368 1472 240
WIRE 1472 368 1424 368
WIRE 400 480 352 480
WIRE 464 528 432 528
WIRE 432 544 432 528
WIRE 400 640 400 480
WIRE 400 640 368 640
WIRE 432 640 432 624
WIRE 432 640 400 640
WIRE 160 656 144 656
WIRE 272 656 272 480
WIRE 272 656 240 656
WIRE 304 656 272 656
WIRE 384 672 368 672
WIRE 432 672 432 640
WIRE 384 720 384 672
WIRE 432 768 432 752
WIRE 464 768 432 768
FLAG 32 32 nVright
FLAG 480 32 nVright
FLAG 480 304 nVleft
FLAG 32 272 nVleft
FLAG -416 -64 nVDD
FLAG 544 64 nVDD
FLAG 720 160 nStageOneOut
FLAG 912 112 nStageOneOut
FLAG 1184 160 nFilterOut
FLAG -480 208 0
FLAG 624 256 0
FLAG 544 256 nVSS
FLAG -416 272 nVSS
FLAG 1536 176 nVDD
FLAG 1424 368 nFilterOut
FLAG 1536 256 nVSS
FLAG 1664 224 nStageTwoOut
FLAG 352 208 nVCM_LOW
FLAG 352 112 nVCM_HI
FLAG 1072 240 nVref
FLAG 1328 272 nVref
FLAG 464 528 nVCM_HI
FLAG 464 768 nVCM_LOW
FLAG 384 720 0
FLAG 336 688 nVSS
FLAG 336 624 nVDD
FLAG -208 368 nRLD_out
FLAG 144 656 nRLD_out
FLAG -480 16 nVref
SYMBOL voltage 32 32 R0
WINDOW 123 0 0 Left 0
WINDOW 39 0 0 Left 0
SYMATTR InstName Vright
SYMATTR Value SINE(2m 0.5m 1)
SYMBOL voltage 32 176 R0
WINDOW 123 0 0 Left 0
WINDOW 39 0 0 Left 0
SYMATTR InstName Vleft
SYMATTR Value SINE(2m 0.5m 1)
SYMBOL voltage -416 -80 R0
SYMATTR InstName V1
SYMATTR Value 1.65V
SYMBOL voltage -416 176 R0
SYMATTR InstName V2
SYMATTR Value 3.3
SYMBOL OpAmps\\AD8422 544 160 R0
SYMATTR InstName U2
SYMBOL res 368 112 R0
SYMATTR InstName R_gain
SYMATTR Value 4.42k
SYMBOL res 1056 144 R0
SYMATTR InstName R_load
SYMATTR Value 510k
SYMBOL cap 976 144 M90
WINDOW 0 0 32 VBottom 2
WINDOW 3 32 32 VTop 2
SYMATTR InstName C1
SYMATTR Value 10µF
SYMBOL OpAmps\\ADA4522 1536 160 R0
SYMATTR InstName U1
SYMBOL res 1520 64 R90
WINDOW 0 0 56 VBottom 2
WINDOW 3 32 56 VTop 2
SYMATTR InstName R1
SYMATTR Value 100k
SYMBOL res 1424 192 R90
WINDOW 0 0 56 VBottom 2
WINDOW 3 32 56 VTop 2
SYMATTR InstName R2
SYMATTR Value 1k
SYMBOL voltage -416 48 R0
SYMATTR InstName V3
SYMATTR Value 1.65
SYMBOL res 416 528 R0
SYMATTR InstName R3
SYMATTR Value 2.21k
SYMBOL res 416 656 R0
SYMATTR InstName R4
SYMATTR Value 2.21k
SYMBOL OpAmps\\UniversalOpAmp 336 656 M0
SYMATTR InstName U3
SYMBOL res 256 496 R270
WINDOW 0 32 56 VTop 2
WINDOW 3 0 56 VBottom 2
SYMATTR InstName R5
SYMATTR Value 1Meg
SYMBOL voltage -208 208 R0
WINDOW 3 15 102 Left 2
WINDOW 123 0 0 Left 0
WINDOW 39 0 0 Left 0
SYMATTR InstName Vbody
SYMATTR Value SINE(0 0.3 0.1)
SYMBOL res 256 640 R90
WINDOW 0 0 56 VBottom 2
WINDOW 3 32 56 VTop 2
SYMATTR InstName R6
SYMATTR Value 1k
TEXT 456 352 Left 2 ;Gain set to 20V/V
TEXT -496 560 Left 2 !.tran 0 20 0 10m
TEXT 1320 440 Left 2 ;op amp gain stage
TEXT 1320 472 Left 2 ;Gain set to 100V/V
TEXT 456 392 Left 2 ;instrumentation amplifier
TEXT -504 376 Left 2 ;Supply rails
TEXT -136 456 Left 2 ;Voltage input from body
TEXT 904 352 Left 2 ;High Pass Filter ~0.03Hz
TEXT 216 832 Left 2 ;Right Leg Drive (RLD) Circuit
