Version 4.1
SHEET 1 2408 744
WIRE 112 48 112 32
WIRE 1936 80 1920 80
WIRE 2096 80 2016 80
WIRE 512 112 384 112
WIRE 976 112 912 112
WIRE 384 128 384 112
WIRE -160 144 -160 112
WIRE -160 144 -224 144
WIRE -160 160 -160 144
WIRE 112 160 112 128
WIRE 112 160 16 160
WIRE 720 160 688 160
WIRE 976 160 976 112
WIRE 1072 160 1040 160
WIRE 1184 160 1072 160
WIRE -224 176 -224 144
WIRE 16 192 16 160
WIRE 112 192 112 160
WIRE 2048 192 2048 176
WIRE 512 208 384 208
WIRE 1536 208 1536 160
WIRE 1920 208 1920 80
WIRE 2016 208 1920 208
WIRE 2096 224 2096 80
WIRE 2096 224 2080 224
WIRE 2144 224 2096 224
WIRE 2016 240 2016 224
WIRE 2016 240 1984 240
WIRE 624 256 624 224
WIRE 1840 272 1840 208
WIRE 1984 288 1984 240
WIRE 1520 544 1408 544
WIRE 1408 592 1408 544
WIRE 1424 592 1408 592
WIRE 1520 608 1520 544
WIRE 1520 608 1488 608
WIRE 1536 608 1520 608
WIRE 1424 624 1408 624
FLAG 112 32 nVright
FLAG 512 80 nVright
FLAG 512 240 nVleft
FLAG 112 272 nVleft
FLAG -160 32 nVDD
FLAG 544 64 nVDD
FLAG 16 192 0
FLAG 720 160 nStageOneOut
FLAG 912 112 nStageOneOut
FLAG 1184 160 nFilterOut
FLAG -224 176 0
FLAG 624 256 0
FLAG 544 256 nVSS
FLAG -160 240 nVSS
FLAG 48 592 0
FLAG 48 512 nVref
FLAG 2144 224 nVout
FLAG 2048 176 nVDD
FLAG 2048 256 nVSS
FLAG 1072 240 0
FLAG 1456 640 nVSS
FLAG 1456 576 nVDD
FLAG 2000 400 0
FLAG 1840 272 0
FLAG 1536 80 nVDD
FLAG 1536 288 0
SYMBOL voltage 112 32 R0
WINDOW 123 0 0 Left 0
WINDOW 39 0 0 Left 0
SYMATTR InstName Vright
SYMATTR Value SINE(0 0.5m 1)
SYMBOL voltage 112 176 R0
WINDOW 123 0 0 Left 0
WINDOW 39 0 0 Left 0
SYMATTR InstName Vleft
SYMATTR Value SINE(0 0.5m 1)
SYMBOL voltage -160 16 R0
SYMATTR InstName V1
SYMATTR Value 3.3
SYMBOL voltage -160 144 R0
SYMATTR InstName V2
SYMATTR Value 3.3
SYMBOL OpAmps\\AD8422 544 160 R0
SYMATTR InstName U2
SYMBOL res 368 112 R0
SYMATTR InstName R_gain
SYMATTR Value 2.21k
SYMBOL res 1056 144 R0
SYMATTR InstName R_load
SYMATTR Value 510k
SYMBOL cap 976 144 M90
WINDOW 0 0 32 VBottom 2
WINDOW 3 32 32 VTop 2
SYMATTR InstName C1
SYMATTR Value 10µF
SYMBOL OpAmps\\ADA4522 2048 160 R0
SYMATTR InstName U1
SYMBOL res 2032 64 R90
WINDOW 0 0 56 VBottom 2
WINDOW 3 32 56 VTop 2
SYMATTR InstName R1
SYMATTR Value 100k
SYMBOL res 1936 192 R90
WINDOW 0 0 56 VBottom 2
WINDOW 3 32 56 VTop 2
SYMATTR InstName R2
SYMATTR Value 1k
SYMBOL voltage 48 496 R0
SYMATTR InstName Vref
SYMATTR Value 1.65V
SYMBOL OpAmps\\ADA4522 1456 544 R0
SYMATTR InstName U3
SYMBOL voltage 1984 368 R0
WINDOW 123 0 0 Left 0
WINDOW 39 0 0 Left 0
SYMATTR InstName V3
SYMATTR Value SINE(0 10m 1)
SYMBOL res 1520 192 R0
SYMATTR InstName R3
SYMATTR Value 1k
SYMBOL res 1520 64 R0
SYMATTR InstName R4
SYMATTR Value 1k
TEXT 456 352 Left 2 ;Gain set to 10V/V
TEXT -248 408 Left 2 !.tran 0 10 0 10m
TEXT 1800 608 Left 2 ;Gain set to 100V/V
