Version 4.1
SHEET 1 992 680
WIRE 112 48 112 32
WIRE 512 112 384 112
WIRE 384 128 384 112
WIRE -160 144 -160 112
WIRE -160 144 -224 144
WIRE -160 160 -160 144
WIRE 112 160 112 128
WIRE 112 160 16 160
WIRE 784 160 688 160
WIRE -224 176 -224 144
WIRE 784 176 784 160
WIRE 16 192 16 160
WIRE 112 192 112 160
WIRE 512 208 384 208
WIRE 624 256 624 224
FLAG 112 32 nVright
FLAG 512 80 nVright
FLAG 512 240 nVleft
FLAG 112 272 nVleft
FLAG -160 32 nVDD
FLAG 544 64 nVDD
FLAG 624 256 0
FLAG -224 176 0
FLAG -160 240 nVSS
FLAG 544 256 nVSS
FLAG 16 192 0
FLAG 784 256 0
SYMBOL voltage 112 32 R0
WINDOW 123 0 0 Left 0
WINDOW 39 0 0 Left 0
SYMATTR InstName Vright
SYMATTR Value SINE(0 0.5m 1)
SYMBOL voltage 112 176 R0
WINDOW 123 0 0 Left 0
WINDOW 39 0 0 Left 0
SYMATTR InstName Vleft
SYMATTR Value SINE(0 0.5m 1)
SYMBOL voltage -160 16 R0
SYMATTR InstName V1
SYMATTR Value 3.3
SYMBOL voltage -160 144 R0
SYMATTR InstName V2
SYMATTR Value 3.3
SYMBOL OpAmps\\AD8422 544 160 R0
SYMATTR InstName U2
SYMBOL res 368 112 R0
SYMATTR InstName R_gain
SYMATTR Value 100
SYMBOL res 768 160 R0
SYMATTR InstName R_load
SYMATTR Value 10k
TEXT 456 352 Left 2 ;Gain set to 200V/V
TEXT -248 408 Left 2 !.tran 0 10 0 10m
