Version 4.1
SHEET 1 1140 680
WIRE 992 -64 864 -64
WIRE 48 0 -48 0
WIRE 416 0 320 0
WIRE 496 0 416 0
WIRE 544 0 496 0
WIRE 912 16 912 0
WIRE 320 32 320 0
WIRE 864 32 864 -64
WIRE 880 32 864 32
WIRE 992 48 992 -64
WIRE 992 48 944 48
WIRE 1040 48 992 48
WIRE -48 64 -48 0
WIRE 880 64 864 64
WIRE 544 80 544 64
WIRE 176 96 112 96
WIRE 496 96 496 0
WIRE 496 96 464 96
WIRE 912 96 912 80
WIRE 832 128 752 128
WIRE 864 128 864 64
WIRE 864 128 832 128
WIRE 112 144 112 96
WIRE 112 256 112 208
WIRE 176 256 112 256
WIRE 512 256 464 256
WIRE 560 256 512 256
WIRE 512 272 512 256
FLAG -48 144 0
FLAG 320 320 0
FLAG 912 96 0
FLAG 832 208 0
FLAG 416 0 nVDD
FLAG 560 256 nVSS
FLAG 1040 48 nVref
FLAG 912 0 nVDD
FLAG 672 128 nVDD
FLAG 48 0 nVDD
FLAG 544 80 0
FLAG 512 336 0
SYMBOL PowerProducts\\LTC1983-3 320 176 R0
SYMATTR InstName U1
SYMBOL voltage -48 48 R0
SYMATTR InstName V1
SYMATTR Value 3.3
SYMBOL cap 96 144 R0
SYMATTR InstName C1
SYMATTR Value 1”
SYMBOL OpAmps\\ADA4522 912 -16 R0
SYMATTR InstName U2
SYMBOL res 848 224 R180
WINDOW 0 36 76 Left 2
WINDOW 3 36 40 Left 2
SYMATTR InstName R1
SYMATTR Value 100k
SYMBOL res 656 144 R270
WINDOW 0 32 56 VTop 2
WINDOW 3 0 56 VBottom 2
SYMATTR InstName R2
SYMATTR Value 100k
SYMBOL cap 496 272 R0
WINDOW 3 39 58 Left 2
SYMATTR InstName C2
SYMATTR Value 10”
SYMBOL cap 528 0 R0
WINDOW 0 44 25 Left 2
SYMATTR InstName C3
SYMATTR Value 10”
TEXT 120 344 Left 2 !.tran 0 1 0 100m
